../../../../bin/linux/DualSPHysics5.2CPU_linux64