

 <GENCASE>  Copyright (c) 2020 by Dr Jose M. Dominguez
 All rights reserved.

 GenCase is a free tool for DualSPHysics simulations.
 DualSPHysics project is an international collaboration between
 University of Vigo (Spain) and University of Manchester (UK).

 Redistribution and use in source and binary forms, with or without
 modification, are permitted provided that the following conditions
 are met:
 * Redistributions of source code must retain the above copyright
   notice, this list of conditions and the following disclaimer.
 * Redistributions in binary form must reproduce the above copyright
   notice, this list of conditions and the following disclaimer in the
   documentation and/or other materials provided with the distribution.
 * Neither the name of the GenCase nor the names of its contributors
   may be used to endorse or promote products derived from this software
   without specific prior written permission.

 THIS SOFTWARE IS PROVIDED BY THE COPYRIGHT HOLDERS AND CONTRIBUTORS "AS IS"
 AND ANY EXPRESS OR IMPLIED WARRANTIES, INCLUDING, BUT NOT LIMITED TO, THE
 IMPLIED WARRANTIES OF MERCHANTABILITY AND FITNESS FOR A PARTICULAR PURPOSE
 ARE DISCLAIMED. IN NO EVENT SHALL THE COPYRIGHT OWNER BE LIABLE FOR ANY
 DIRECT, INDIRECT, INCIDENTAL, SPECIAL, EXEMPLARY, OR CONSEQUENTIAL DAMAGES
 (INCLUDING, BUT NOT LIMITED TO, PROCUREMENT OF SUBSTITUTE GOODS OR SERVICES;
 LOSS OF USE, DATA, OR PROFITS; OR BUSINESS INTERRUPTION) HOWEVER CAUSED AND
 ON ANY THEORY OF LIABILITY, WHETHER IN CONTRACT, STRICT LIABILITY, OR TORT
 (INCLUDING NEGLIGENCE OR OTHERWISE) ARISING IN ANY WAY OUT OF THE USE OF
 THIS SOFTWARE, EVEN IF ADVISED OF THE POSSIBILITY OF SUCH DAMAGE.


GenCase v5.0.278c (30-10-2023)
===============================
OmpThreads: 4

[LoadXMLInit]
List: MAIN

Total operations: 5
[LoadXMLInit-End  time:0.039s]

[Draw]
List of available variables: Gravity_x=[0]  Gravity_y=[0]  Gravity_z=[-9.81]  Rhop0=[1000]  MResId=[0]  Dp=[0.033]  PosMin_x=[0]  PosMin_y=[0]  PosMin_z=[0]  PosMax_x=[1]  PosMax_y=[1]  PosMax_z=[1]  CaseName=["eff.033"]  Data2D=[0]  Data2DPosy=[0]  H=[0.0685892]  MassBound=[0.035937]  MassFluid=[0.035937]

Mk size: 1 bytes
Case limits: (0,0,0) - (1,1,1)
Distance between points (Dp): 0.033
Reference position: (0,0,0)
Case domain: (0,0,0)-(29,29,29)
Domain points: 30 x 30 x 30 = 27000
Case parts: 1 x 30z
Memory: 0.00Gb 0.03Mb (27000)

> MAIN
FileShapes> _Dp.vtk <---- EMPTY FILE NOT SAVED
FileShapes> _Actual.vtk <---- EMPTY FILE NOT SAVED
<MAIN (Operations= 4+1+1 = 6)

Triangles: 16 (0 ignored)
[Draw-End  time:0.033s]

[LoadsXMLConfig]
Execution parameters.
Initials configuration.
Floating bodies configuration.
Properties configuration.
Predefined motion configuration.
[LoadsXMLConfig-End  time:0.010s]

[PreparePoints]
Computing Vtk-Cells data...  (time:0.013s)
BitSizeTot: 16 (1 + 5+5+5)
Points loaded: 27000
Sorting points by Z...
Sorting points by Mk...

List of Points:
Points -> Fluid particles:
  block[  0] (mk:  1):  27000  -->   27000

Particle summary:
  Fixed....: 0
  Moving...: 0
  Floating.: 0
  Fluid....: 27000  id:(0-26999)   MKs:1 (1)

Total particles: 27000 (bound=0 (fx=0 mv=0 ft=0) fluid=27000)
Total MK blocks: 1 (bound=0 (fx=0 mv=0 ft=0) fluid=1)

*** WARNING: No boundary particles were created in the defined domain.


Maximum depth: 0.957 (automatic)
Speed of system: 3.06401 (automatic)
Speed of sound: max(coefsound*speedsystem,10*sqrt(g*depth))
Speed of sound: 61.2802 max(61.2802,30.6401)
Speed of sound: 61.2802 (automatic)

Coefh:1.200000 (hdp:2.078461)

[PreparePoints-End  time:0.067s]

[SaveCase3D]
/usr/local/games/eff.033/eff.033_out/eff.033_MkCells.vtk  (time:0.020s, shapes:6, points:24)
/usr/local/games/eff.033/eff.033_out/eff.033.bi4<double>  (time:0.096s)
/usr/local/games/eff.033/eff.033_out/eff.033_All.vtk  (time: 0.102s)
/usr/local/games/eff.033/eff.033_out/eff.033_Fluid.vtk  (time: 0.102s)
/usr/local/games/eff.033/eff.033_out/eff.033.xml  (time:0.020s)

Save files time: 0.340s

Particle limits:
  X range: 0 to 0.957 [m]
  Y range: 0 to 0.957 [m]
  Z range: 0 to 0.957 [m]

[SaveCase3D-End  time:0.366s]

[WARNINGS]
1. No boundary particles were created in the defined domain.

Time of execution: 0.556 sec. (4 threads)

Finished execution (code=0).

